! teachersroom.idf
!
! Location:                Kalamata, Greece
!
! Run Period (Weather File): Full Annual Simulation, Kalamata
!
! Floor Area:              59.3 m2
! Number of Stories:       1

  Version,25.2;

  Timestep,6;

  Building,
    23,                      !- Name
    0.0,                     !- North Axis {deg}
    City,                    !- Terrain
    0.05,                    !- Loads Convergence Tolerance Value {W}
    0.05,                    !- Temperature Convergence Tolerance Value {deltaC}
    FullExterior,            !- Solar Distribution
    30,                      !- Maximum Number of Warmup Days
    6;                       !- Minimum Number of Warmup Days

  HeatBalanceAlgorithm,ConductionTransferFunction;

  SurfaceConvectionAlgorithm:Inside,TARP;

  SurfaceConvectionAlgorithm:Outside,DOE-2;  

SimulationControl,
    Yes,   !- Do Zone Sizing CalCRlation
    Yes,   !- Do System Sizing CalCRlation (can stay No if you don't need it)
    No,    !- Do Plant Sizing CalCRlation
    Yes,   !- Run Simulation for Sizing Periods
    Yes,   !- Run Simulation for Weather File Run Periods
    No,    !- Do HVAC Sizing Simulation for Sizing Periods
    1;     !- Maximum Number of HVAC Sizing Simulation Passes

RunPeriod,
    RunPeriod1,              !- Name
    1,                       !- Begin Month
    1,                       !- Begin Day of Month
    ,                        !- Begin Year
    12,                      !- End Month
    31,                      !- End Day of Month
    ,                        !- End Year
    Tuesday,                 !- Day of Week for Start Day
    Yes,                     !- Use Weather File Holidays and Special Days
    Yes,                     !- Use Weather File Daylight Saving Period
    No,                      !- Apply Weekend Holiday Rule
    Yes,                     !- Use Weather File Rain Indicators
    Yes;                     !- Use Weather File Snow Indicators  

! ================================
!  Official single-day holidays
! ================================
RunPeriodControl:SpecialDays,
    Ochi_Day,
    10/28,                 !- Start Date (October 28)
    1,                     !- Special Day Type
    Holiday;               !- Duration (days)

RunPeriodControl:SpecialDays,
    Polytechnic_Uprising_Day,
    11/17,                 !- Start Date (November 17)
    1,                     !- Special Day Type
    Holiday;               !- Duration (days)

RunPeriodControl:SpecialDays,
    Independence_Day,
    03/25,                 !- Start Date (March 25)
    1,                     !- Special Day Type
    Holiday;               !- Duration (days)

RunPeriodControl:SpecialDays,
    Labour_Day,
    05/01,                 !- Start Date (May 1)
    1,                     !- Special Day Type
    Holiday;               !- Duration (days)

! ================================
!  Christmas break: Dec 24 – Jan 6
!   Split into two periods to avoid year boundary issues
! ================================
RunPeriodControl:SpecialDays,
    Christmas_Break_Dec,
    12/24,          ! Start Date
    8,              ! Duration in days
    Holiday;        ! Special Day Type

RunPeriodControl:SpecialDays,
    Christmas_Break_Jan,
    01/01,                 !- Start Date (Jan 1)
    6,                     ! Duration in days
    Holiday;               ! Special Day Type

! ================================
!  Easter holidays: Apr 10 – Apr 23
! ================================
RunPeriodControl:SpecialDays,
    Easter_Break,
    04/10,                      !- Start Date (Apr 10)
    14,
    Holiday;                    !- 10..23 inclusive

! ================================
!  Summer break: Jun 16 – Sep 10
! ================================
RunPeriodControl:SpecialDays,
    Summer_Break,
    06/16,                      !- Start Date (Jun 16)
    87,
    Holiday;                    !- 16 Jun .. 10 Sep inclusive

Site:Location,
  Kalamata_Greece,          !- Name
  37.02,                    !- Latitude {deg}
  22.11,                    !- Longitude {deg}
  2.00,                     !- Time Zone {hr}
  8.0;                      !- Elevation {m}

SizingPeriod:DesignDay,
  KalamataSummerDesignDay,      !- Name
  6,                            !- Month
  10,                           !- Day of Month
  SummerDesignDay,              !- Day Type
  33.2,                         !- Maximum Dry-Bulb Temperature {C}
  11.0,                         !- Daily Dry-Bulb Temperature Range {C}
  DefaultMultipliers,           !- Dry-Bulb Temperature Range Modifier Type
  ,                             !- Dry-Bulb Temperature Range Modifier Day Schedule Name
  Wetbulb,                      !- Humidity Condition Type
  23.0,                         !- Wetbulb or DewPoint at Maximum Dry-Bulb {C}
  ,                             !- Humidity Condition Day Schedule Name
  ,                             !- Humidity Ratio at Maximum Dry-Bulb {kgWater/kgDryAir}
  ,                             !- Enthalpy at Maximum Dry-Bulb {J/kg}
  ,                             !- Daily Wet-Bulb Temperature Range {deltaC}
  101325,                       !- Barometric Pressure {Pa}
  3.0,                          !- Wind Speed {m/s}
  0,                            !- Wind Direction {deg}
  No,                           !- Rain Indicator
  No,                           !- Snow Indicator
  No,                           !- Daylight Saving Time Indicator
  ASHRAEClearSky,               !- Solar Model Indicator
  ,                             !- Beam Solar Day Schedule Name
  ,                             !- Diffuse Solar Day Schedule Name
  ,                             !- Ashrae Clear Sky Optical Depth for Beam Irradiance (taub)
  ,                             !- Ashrae Clear Sky Optical Depth for Diffuse Irradiance (taud)
  1;                            !- Sky Clearness

SizingPeriod:DesignDay,
  KalamataWinterDesignDay,      !- Name
  1,                            !- Month
  21,                           !- Day of Month
  WinterDesignDay,              !- Day Type
  1.2,                          !- Maximum Dry-Bulb Temperature {C}
  0.0,                          !- Daily Dry-Bulb Temperature Range {C}
  DefaultMultipliers,           !- Dry-Bulb Temperature Range Modifier Type
  ,                             !- Dry-Bulb Temperature Range Modifier Day Schedule Name
  WetBulb,                      !- Humidity Condition Type
  -1.5,                         !- Wetbulb or DewPoint at Maximum Dry-Bulb {C}
  ,                             !- Humidity Condition Day Schedule Name
  ,                             !- Humidity Ratio at Maximum Dry-Bulb {kgWater/kgDryAir}
  ,                             !- Enthalpy at Maximum Dry-Bulb {J/kg}
  ,                             !- Daily Wet-Bulb Temperature Range {deltaC}
  101325,                       !- Barometric Pressure {Pa}
  3.0,                          !- Wind Speed {m/s}
  0,                            !- Wind Direction {deg}
  No,                           !- Rain Indicator
  No,                           !- Snow Indicator
  No,                           !- Daylight Saving Time Indicator
  ASHRAEClearSky,               !- Solar Model Indicator
  ,                             !- Beam Solar Day Schedule Name
  ,                             !- Diffuse Solar Day Schedule Name
  ,                             !- Ashrae Clear Sky Optical Depth for Beam Irradiance (taub)
  ,                             !- Ashrae Clear Sky Optical Depth for Diffuse Irradiance (taud)
  0.9;                          !- Sky Clearness

Sizing:Zone,
  Classroom_Left,            !- Zone or ZoneList Name
  SupplyAirTemperature,       !- Zone Cooling Design Supply Air Temperature Input Method
  14.0,                       !- Cooling Design Supply Air Temperature {C}
  ,                           !- Cooling Design Supply Air Temperature Difference {deltaC}
  SupplyAirTemperature,       !- Zone Heating Design Supply Air Temperature Input Method
  40.0,                       !- Heating Design Supply Air Temperature {C}
  ,                           !- Heating Design Supply Air Temp Difference {deltaC}
  0.009,                      !- Zone Cooling Design Supply Air Humidity Ratio {kgWater/kgDryAir}
  0.004,                      !- Zone Heating Design Supply Air Humidity Ratio {kgWater/kgDryAir}
  ,                           !- Design Specification Outdoor Air Object Name (if you have one)
  ,                           !- Zone Heating Sizing Factor
  ,                           !- Zone Cooling Sizing Factor
  ;                           !- Cooling Design Air Flow Method etc. (use defaults)

Sizing:Zone,
  Classroom_Right,                     !- Zone or ZoneList Name
  SupplyAirTemperature,       !- Zone Cooling Design Supply Air Temperature Input Method
  14.0,                       !- Cooling Design Supply Air Temperature {C}
  ,                           !- Cooling Design Supply Air Temperature Difference {deltaC}
  SupplyAirTemperature,       !- Zone Heating Design Supply Air Temperature Input Method
  40.0,                       !- Heating Design Supply Air Temperature {C}
  ,                           !- Heating Design Supply Air Temp Difference {deltaC}
  0.009,                      !- Zone Cooling Design Supply Air Humidity Ratio {kgWater/kgDryAir}
  0.004,                      !- Zone Heating Design Supply Air Humidity Ratio {kgWater/kgDryAir}
  ,                           !- Design Specification Outdoor Air Object Name (if you have one)
  ,                           !- Zone Heating Sizing Factor
  ,                           !- Zone Cooling Sizing Factor
  ;                           !- Cooling Design Air Flow Method etc. (use defaults)

Sizing:Zone,
  Hallway_Room3,                     !- Zone or ZoneList Name
  SupplyAirTemperature,       !- Zone Cooling Design Supply Air Temperature Input Method
  14.0,                       !- Cooling Design Supply Air Temperature {C}
  ,                           !- Cooling Design Supply Air Temperature Difference {deltaC}
  SupplyAirTemperature,       !- Zone Heating Design Supply Air Temperature Input Method
  40.0,                       !- Heating Design Supply Air Temperature {C}
  ,                           !- Heating Design Supply Air Temp Difference {deltaC}
  0.009,                      !- Zone Cooling Design Supply Air Humidity Ratio {kgWater/kgDryAir}
  0.004,                      !- Zone Heating Design Supply Air Humidity Ratio {kgWater/kgDryAir}
  ,                           !- Design Specification Outdoor Air Object Name (if you have one)
  ,                           !- Zone Heating Sizing Factor
  ,                           !- Zone Cooling Sizing Factor
  ;                           !- Cooling Design Air Flow Method etc. (use defaults)

Sizing:Zone,
  Room2_Small,                     !- Zone or ZoneList Name
  SupplyAirTemperature,       !- Zone Cooling Design Supply Air Temperature Input Method
  14.0,                       !- Cooling Design Supply Air Temperature {C}
  ,                           !- Cooling Design Supply Air Temperature Difference {deltaC}
  SupplyAirTemperature,       !- Zone Heating Design Supply Air Temperature Input Method
  40.0,                       !- Heating Design Supply Air Temperature {C}
  ,                           !- Heating Design Supply Air Temp Difference {deltaC}
  0.009,                      !- Zone Cooling Design Supply Air Humidity Ratio {kgWater/kgDryAir}
  0.004,                      !- Zone Heating Design Supply Air Humidity Ratio {kgWater/kgDryAir}
  ,                           !- Design Specification Outdoor Air Object Name (if you have one)
  ,                           !- Zone Heating Sizing Factor
  ,                           !- Zone Cooling Sizing Factor
  ;                           !- Cooling Design Air Flow Method etc. (use defaults)

Sizing:Plant,
    HW-Loop,
    Heating,
    82.0,
    11.0;

Sizing:System,
  Haier_AirLoop,                 !- AirLoop Name
  Sensible,                      !- Type of Load to Size On
  autosize,                      !- Design Outdoor Air Flow Rate {m3/s}
  0.3,                           !- Minimum System Air Flow Ratio
  4.5,                           !- Preheat Design Temperature {C}
  0.008,                         !- Preheat Design Humidity Ratio {kgWater/kgDryAir}
  11.0,                          !- Precool Design Temperature {C}
  0.008,                         !- Precool Design Humidity Ratio {kgWater/kgDryAir}
  12.8,                          !- Central Cooling Design Supply Air Temperature {C}
  16.7,                          !- Central Heating Design Supply Air Temperature {C}
  NonCoincident,                 !- Sizing Option
  No,                            !- 100% Outdoor Air in Cooling
  No,                            !- 100% Outdoor Air in Heating
  0.0085,                        !- Central Cooling Design Supply Air Humidity Ratio {kgWater/kgDryAir}
  0.0080,                        !- Central Heating Design Supply Air Humidity Ratio {kgWater/kgDryAir}
  DesignDay,                     !- Cooling Supply Air Flow Rate Method
  0.333,                         !- Cooling Supply Air Flow Rate {m3/s}
  ,                              !- Cooling Supply Air Flow Rate Per Floor Area {m3/s-m2}
  ,                              !- Cooling Fraction of Autosized Cooling Supply Air Flow Rate {-}
  ,                              !- Cooling Supply Air Flow Rate Per Unit Cooling Capacity {m3/s-W}
  DesignDay,                     !- Heating Supply Air Flow Rate Method
  0.0,                           !- Heating Supply Air Flow Rate {m3/s}  (since you don't want air heating)
  ,                              !- Heating Supply Air Flow Rate Per Floor Area {m3/s-m2}
  ,                              !- Heating Fraction of Autosized Heating Supply Air Flow Rate {-}
  ,                              !- Heating Fraction of Autosized Cooling Supply Air Flow Rate {-}
  ,                              !- Heating Supply Air Flow Rate Per Unit Heating Capacity {m3/s-W}
  ZoneSum,                       !- System Outdoor Air Method
  0.5,                           !- Zone Maximum Outdoor Air Fraction
  CoolingDesignCapacity,         !- Cooling Design Capacity Method
  autosize,                      !- Cooling Design Capacity {W}
  ,                              !- Cooling Design Capacity Per Floor Area {W/m2}
  ,                              !- Fraction of Autosized Cooling Design Capacity {-}
  HeatingDesignCapacity,         !- Heating Design Capacity Method
  0.0,                           !- Heating Design Capacity {W} (disabled)
  ,                              !- Heating Design Capacity Per Floor Area {W/m2}
  ,                              !- Fraction of Autosized Heating Design Capacity {-}
  ,                              !- Central Cooling Capacity Control Method
  ,                              !- OcCRpant Diversity
  ;                              !- Heating Coil Sizing Method

!- =========================================================
!- MATERIALS
!- =========================================================

Material,
  Plaster_15mm,            !- Name
  Smooth,                  !- Roughness
  0.015,                   !- Thickness {m}
  0.35,                    !- Conductivity {W/m-K}
  1200,                    !- Density {kg/m3}
  840,                     !- Specific Heat {J/kg-K}
  0.90,                    !- Thermal Absorptance
  0.70,                    !- Solar Absorptance
  0.70;                    !- Visible Absorptance

Material,
  Brick_Masonry_200mm,     !- Name
  Rough,                   !- Roughness
  0.20,                    !- Thickness {m}
  0.72,                    !- Conductivity {W/m-K}
  1800,                    !- Density {kg/m3}
  840,                     !- Specific Heat {J/kg-K}
  0.90,                    !- Thermal Absorptance
  0.65,                    !- Solar Absorptance
  0.65;                    !- Visible Absorptance

Material,
  Concrete_RC_200mm,       !- Name
  MediumRough,             !- Roughness
  0.20,                    !- Thickness {m}
  1.70,                    !- Conductivity {W/m-K}
  2400,                    !- Density {kg/m3}
  900,                     !- Specific Heat {J/kg-K}
  0.90,                    !- Thermal Absorptance
  0.65,                    !- Solar Absorptance
  0.65;                    !- Visible Absorptance

Material,
  Linoleum_3mm,            !- Name
  Smooth,                  !- Roughness
  0.003,                   !- Thickness {m}
  0.17,                    !- Conductivity {W/m-K}
  1200,                    !- Density {kg/m3}
  1400,                    !- Specific Heat {J/kg-K}
  0.90,                    !- Thermal Absorptance
  0.50,                    !- Solar Absorptance
  0.50;                    !- Visible Absorptance

Material,
  Wood_Floor_20mm,         !- Name
  MediumSmooth,            !- Roughness
  0.020,                   !- Thickness {m}
  0.14,                    !- Conductivity {W/m-K}
  650,                     !- Density {kg/m3}
  1600,                    !- Specific Heat {J/kg-K}
  0.90,                    !- Thermal Absorptance
  0.55,                    !- Solar Absorptance
  0.55;                    !- Visible Absorptance

Material,
  Door_Wood_40mm,          !- Name
  MediumSmooth,            !- Roughness
  0.040,                   !- Thickness {m}
  0.14,                    !- Conductivity {W/m-K}
  600,                     !- Density {kg/m3}
  1600,                    !- Specific Heat {J/kg-K}
  0.90,                    !- Thermal Absorptance
  0.60,                    !- Solar Absorptance
  0.60;                    !- Visible Absorptance

Material,
  Door_Metal_Steel_2mm,    !- Name
  Smooth,                  !- Roughness
  0.002,                   !- Thickness {m}
  45.0,                    !- Conductivity {W/m-K}
  7850,                    !- Density {kg/m3}
  500,                     !- Specific Heat {J/kg-K}
  0.90,                    !- Thermal Absorptance
  0.70,                    !- Solar Absorptance
  0.70;                    !- Visible Absorptance


!- =========================================================
!- GLAZING + ALUMINUM FRAME
!- (Option A: SimpleGlazingSystem, easiest)
!- =========================================================

WindowMaterial:SimpleGlazingSystem,
  Simple_DoubleClear,      !- Name
  2.8,                     !- U-Factor {W/m2-K}  (typical double clear)
  0.62,                    !- Solar Heat Gain Coefficient
  0.78;                    !- Visible Transmittance

Construction,
  Window_DoubleClear_Alu,  !- Name
  Simple_DoubleClear;      !- Outside Layer

WindowProperty:FrameAndDivider,
  Frame_Aluminum,
  0.05,                                 !- Frame Width {m}
  0.04,                                 !- Frame Outside Projection {m}
  0.04,                                 !- Frame Inside Projection {m}
  2.0,                                  !- Frame Conductance {W/m2-K}
  1.0,                                  !- Ratio of Frame-Edge Glass Conductance to Center-Of-Glass Conductance
  0.60,                                 !- Frame Solar Absorptance
  0.60,                                 !- Frame Visible Absorptance
  0.84,                                 !- Frame Thermal Hemispherical Emissivity
  ,                                     !- Divider Type  (blank = no dividers)
  ,                                     !- Divider Width {m}
  0,                                     !- Number of Horizontal Dividers
  0,                                     !- Number of Vertical Dividers
  ,                                     !- Divider Outside Projection {m}
  ,                                     !- Divider Inside Projection {m}
  ,                                     !- Divider Conductance {W/m2-K}
  ,                                     !- Ratio of Divider-Edge Glass Conductance to Center-Of-Glass Conductance
  ,                                     !- Divider Solar Absorptance
  ,                                     !- Divider Visible Absorptance
  ;                                     !- Divider Thermal Hemispherical Emissivity

!- =========================================================
!- CONSTRUCTIONS (assemblies)
!- =========================================================

Construction,
  Wall_BrickPlaster,       !- Name
  Plaster_15mm,            !- Outside Layer
  Brick_Masonry_200mm,     !- Layer 2
  Plaster_15mm;            !- Layer 3 (inside)

Construction,
  Ceiling_RCSlab_Plaster,  !- Name
  Plaster_15mm,            !- Outside Layer (e.g., room side)
  Concrete_RC_200mm,       !- Layer 2
  Plaster_15mm;            !- Layer 3 (other side if needed)

Construction,
  Floor_Linoleum_on_RC,    !- Name
  Linoleum_3mm,
  Concrete_RC_200mm;

Construction,
  Floor_Wood_on_RC,        !- Name
  Wood_Floor_20mm,
  Concrete_RC_200mm;

Construction,
  Door_Wood,               !- Name
  Door_Wood_40mm;          !- Outside Layer

Construction,
  Door_Metal,              !- Name
  Door_Metal_Steel_2mm;    !- Outside Layer

!- =========================================================
!- ZONES (Ceiling Height = 3m, Ground floor)
!- =========================================================

Zone,
  Classroom_Left,         !- Name
  0,                       !- Direction of Relative North {deg}
  0, 0, 0,                 !- X Origin, Y Origin, Z Origin {m}
  1,                       !- Type
  1,                       !- Multiplier
  3;                       !- Ceiling Height {m}

Zone,
  Classroom_Right,
  0,
  0, 0, 0,
  1,
  1,
  3;

Zone,
  Hallway_Room3,
  0,
  0, 0, 0,
  1,
  1,
  3;

Zone,
  Room2_Small,
  0,
  0, 0, 0,
  1,
  1,
  3;

!- =========================================================
!- CLASSROOM LEFT 
!- =========================================================

BuildingSurface:Detailed,
  CL_Floor,
  Floor,
  Floor_linoleum_on_RC,
  Classroom_Left,
  ,                         !- Space Name
  Ground,
  ,
  NoSun,
  NoWind,
  1.0,
  4,
  0.00, 6.67, 0.0,
  0.00, 0.00, 0.0,
  6.69, 0.00, 0.0,
  6.69, 6.67, 0.0;

BuildingSurface:Detailed,
  CL_Roof,
  Roof,
  Ceiling_RCSlab_Plaster,
  Classroom_Left,
  ,                         !- Space Name
  Outdoors,
  ,
  SunExposed,
  WindExposed,
  0.5,
  4,
  0.00, 6.67, 3.0,
  0.00, 0.00, 3.0,
  6.69, 0.00, 3.0,
  6.69, 6.67, 3.0;

BuildingSurface:Detailed,
  CL_Wall_West_1,
  Wall,
  Wall_BrickPlaster,
  Classroom_Left,
  ,                         !- Space Name
  Outdoors,
  ,
  SunExposed,
  WindExposed,
  0.5,
  4,
  0.00, 1.50, 3,
  0.00, 0.00, 3,
  0.00, 0.00, 0,
  0.00, 1.50, 0;

BuildingSurface:Detailed,
  CL_Wall_West_2,
  Wall,
  Wall_BrickPlaster,
  Classroom_Left,
  ,                         !- Space Name
  Adiabatic,
  ,
  NoSun,
  NoWind,
  0.5,
  4,
  0.00, 5.17, 3,
  0.00, 1.50, 3,
  0.00, 1.50, 0,
  0.00, 5.17, 0;

BuildingSurface:Detailed,
  CL_Wall_West_3,
  Wall,
  Wall_BrickPlaster,
  Classroom_Left,
  ,                         !- Space Name
  Outdoors,
  ,
  SunExposed,
  WindExposed,
  0.5,
  4,
  0.00, 6.67, 3,
  0.00, 5.17, 3,
  0.00, 5.17, 0,
  0.00, 6.67, 0;

BuildingSurface:Detailed,
  CL_Wall_South,
  Wall,
  Wall_BrickPlaster,
  Classroom_Left,
  ,                         !- Space Name
  Outdoors,
  ,
  SunExposed,
  WindExposed,
  0.5,
  4,
  6.69, 0, 3,
  0.00, 0, 3,
  0.00, 0, 0,
  6.69, 0, 0;

BuildingSurface:Detailed,
  CL_Wall_North,
  Wall,
  Wall_BrickPlaster,
  Classroom_Left,
  ,                         !- Space Name
  Outdoors,
  ,
  NoSun,
  NoWind,
  0.5,
  4,
  6.69, 6.67, 3,
  0.00, 6.67, 3,
  0.00, 6.67, 0,
  6.69, 6.67, 0;

BuildingSurface:Detailed,
  CL_Wall_East_1,
  Wall,
  Wall_BrickPlaster,
  Classroom_Left,
  ,                         !- Space Name
  Adiabatic,
  ,
  NoSun,
  NoWind,
  0.5,
  4,
  6.69, 6.67, 3,
  6.69, 3.09, 3,
  6.69, 3.09, 0,
  6.69, 6.67, 0;

BuildingSurface:Detailed,
  CL_Wall_East_2,
  Wall,
  Wall_BrickPlaster,
  Classroom_Left,
  ,                         !- Space Name
  Surface,
  H3_Wall_West,
  NoSun,
  NoWind,
  0.5,
  4,
  6.69, 3.09, 3,
  6.69, 0.00, 3,
  6.69, 0.00, 0,
  6.69, 3.09, 0;


!- =========================================================
!- CLASSROOM RIGHT (7.52 x 6.50), y 6.60..13.10
!- =========================================================

BuildingSurface:Detailed,
  CR_Floor,
  Floor,
  Floor_Linoleum_on_RC,
  Classroom_Right,
  ,                         !- Space Name
  Ground,
  ,
  NoSun,
  NoWind,
  1.0,
  4,
  13.30, 6.67, 0,
  22.77, 6.67, 0,
  22.77, 0.00, 0,
  13.30, 0.00, 0;

BuildingSurface:Detailed,
  CR_Roof,
  Roof,
  Ceiling_RCSlab_Plaster,
  Classroom_Right,
  ,                         !- Space Name
  Outdoors,
  ,
  SunExposed,
  WindExposed,
  0.5,
  4,
  13.30, 6.67, 3,
  22.77, 6.67, 3,
  22.77, 0.00, 3,
  13.30, 0.00, 3;

BuildingSurface:Detailed,
  CR_Wall_West_1,
  Wall,
  Wall_BrickPlaster,
  Classroom_Right,
  ,                         !- Space Name
  Surface,
  H3_Wall_East,
  NoSun,
  NoWind,
  0.5,
  4,
  13.30, 2.98, 3,
  13.30, 0.00, 3,
  13.30, 0.00, 0,
  13.30, 2.98, 0;

BuildingSurface:Detailed,
  CR_Wall_West_2,
  Wall,
  Wall_BrickPlaster,
  Classroom_Right,
  ,                         !- Space Name
  Surface,
  R2_Wall_East,
  NoSun,
  NoWind,
  0.5,
  4,
  13.30, 6.67, 3,
  13.30, 2.98, 3,
  13.30, 2.98, 0,
  13.30, 6.67, 0;

BuildingSurface:Detailed,
  CR_Wall_North,
  Wall,
  Wall_BrickPlaster,
  Classroom_Right,
  ,                         !- Space Name
  Outdoors,
  ,
  SunExposed,
  WindExposed,
  0.5,
  4,
  22.77, 6.67, 3,
  13.30, 6.67, 3,
  13.30, 6.67, 0,
  22.77, 6.67, 0;

BuildingSurface:Detailed,
  CR_Wall_South,
  Wall,
  Wall_BrickPlaster,
  Classroom_Right,
  ,
  Outdoors,
  ,
  SunExposed,
  WindExposed,
  0.5,
  4,
  13.30, 0.00, 0.00,
  22.77, 0.00, 0.00,
  22.77, 0.00, 3.00,
  13.30, 0.00, 3.00;

BuildingSurface:Detailed,
  CR_Wall_East,
  Wall,
  Wall_BrickPlaster,
  Classroom_Right,
  ,                         !- Space Name
  Outdoors,
  ,
  SunExposed,
  WindExposed,
  0.5,
  4,
  22.77, 0.00, 3,
  22.77, 6.67, 3,
  22.77, 6.67, 0,
  22.77, 0.00, 0;

!- =========================================================
!- HALLWAY ROOM 3 (as you had it)
!- =========================================================

BuildingSurface:Detailed,
  H3_Floor,
  Floor,
  Floor_Linoleum_on_RC,
  Hallway_Room3,
  ,                         !- Space Name
  Ground,
  ,
  NoSun,
  NoWind,
  1.0,
  4,
  6.92, 3.09, 0,
  13.07, 3.09, 0,
  13.07, 0.00, 0,
  6.92, 0.00, 0;

BuildingSurface:Detailed,
  H3_Roof,
  Roof,
  Ceiling_RCSlab_Plaster,
  Hallway_Room3,
  ,                         !- Space Name
  Outdoors,
  ,
  SunExposed,
  WindExposed,
  0.5,
  6,
  6.92, 3.09, 3,
  13.07, 3.09, 3,
  13.07, 0.00, 3,
  6.92, 0.00, 3;

BuildingSurface:Detailed,
  H3_Wall_West,
  Wall,
  Wall_BrickPlaster,
  Hallway_Room3,
  ,                         !- Space Name
  Surface,
  CL_Wall_East_2,
  NoSun,
  NoWind,
  0.5,
  4,
  6.92, 3.09, 0,
  6.92, 0.00, 0,
  6.92, 0.00, 3,
  6.92, 3.09, 3;

BuildingSurface:Detailed,
  H3_Wall_South,
  Wall,
  Wall_BrickPlaster,
  Hallway_Room3,
  ,
  Outdoors,
  ,
  SunExposed,
  WindExposed,
  0.5,
  4,
  6.92,  0.00, 0.00,
  13.07, 0.00, 0.00,
  13.07, 0.00, 3.00,
  6.92,  0.00, 3.00;

BuildingSurface:Detailed,
  H3_Wall_East,
  Wall,
  Wall_BrickPlaster,
  Hallway_Room3,
  ,                         !- Space Name
  Surface,
  CR_Wall_West_1,
  NoSun,
  NoWind,
  0.5,
  4,
  13.07, 0.00, 3,
  13.07, 3.09, 3,
  13.07, 3.09, 0,
  13.07, 0.00, 0;

BuildingSurface:Detailed,
  H3_Wall_North_1,
  Wall,
  Wall_BrickPlaster,
  Hallway_Room3,
  ,                         !- Space Name
  Surface,
  R2_Wall_South,
  NoSun,
  NoWind,
  0.5,
  4,
  13.07, 3.09, 3,
  9.31, 3.09, 3,
  9.31, 3.09, 0,
  13.07, 3.09, 0;

BuildingSurface:Detailed,
  H3_Wall_North_2,
  Wall,
  Wall_BrickPlaster,
  Hallway_Room3,
  ,                         !- Space Name
  Adiabatic,
  ,
  NoSun,
  NoWind,
  0.5,
  4,
  9.31, 3.09, 3,
  6.92, 3.09, 3,
  6.92, 3.09, 0,
  9.31, 3.09, 0;

!- =========================================================
!- ROOM 2
!- =========================================================

BuildingSurface:Detailed,
  R2_Floor,
  Floor,
  Floor_Linoleum_on_RC,
  Room2_Small,
  ,                         !- Space Name
  Ground,
  ,
  NoSun,
  NoWind,
  1.0,
  4,
  9.54, 6.67, 0,
  9.54, 3.21, 0,
  13.07, 3.21, 0,
  13.07, 6.67, 0;

BuildingSurface:Detailed,
  R2_Roof,
  Roof,
  Ceiling_RCSlab_Plaster,
  Room2_Small,
  ,                         !- Space Name
  Outdoors,
  ,
  SunExposed,
  WindExposed,
  0.5,
  4,
  9.54, 6.67, 3,
  9.54, 3.21, 3,
  13.07, 3.21, 3,
  13.07, 6.67, 3;

BuildingSurface:Detailed,
  R2_Wall_West,
  Wall,
  Wall_BrickPlaster,
  Room2_Small,
  ,                         !- Space Name
  Adiabatic,
  ,
  NoSun,
  NoWind,
  0.5,
  4,
  9.54, 3.21, 3,
  9.54, 6.67, 3,
  9.54, 6.67, 0,
  9.54, 3.21, 0;

BuildingSurface:Detailed,
  R2_Wall_South,
  Wall,
  Wall_BrickPlaster,
  Room2_Small,
  ,                         !- Space Name
  Surface,