!- Linux Line endings 

Version,
    25.2;                     !- Version Identifier

SimulationControl,
    Yes,                      !- Do Zone Sizing Calculation
    Yes,                      !- Do System Sizing Calculation
    No,                       !- Do Plant Sizing Calculation
    Yes,                      !- Run Simulation for Sizing Periods
    Yes,                      !- Run Simulation for Weather File Run Periods
    No,                       !- Do HVAC Sizing Simulation for Sizing Periods
    1;                        !- Maximum Number of HVAC Sizing Simulation Passes

Building,
    23,                       !- Name
    0,                        !- North Axis
    City,                     !- Terrain
    0.05,                     !- Loads Convergence Tolerance Value
    0.05,                     !- Temperature Convergence Tolerance Value
    FullExterior,             !- Solar Distribution
    30,                       !- Maximum Number of Warmup Days
    6;                        !- Minimum Number of Warmup Days

SurfaceConvectionAlgorithm:Inside,
    TARP;                     !- Algorithm

SurfaceConvectionAlgorithm:Outside,
    DOE-2;                    !- Algorithm

HeatBalanceAlgorithm,
    ConductionTransferFunction;    !- Algorithm

ZoneAirContaminantBalance,
    Yes,                      !- Carbon Dioxide Concentration
    Outdoor_CO2_Level;        !- Outdoor Carbon Dioxide Schedule Name

Timestep,
    6;                        !- Number of Timesteps per Hour

Site:Location,
    Kalamata_Greece,          !- Name
    37.02,                    !- Latitude
    22.11,                    !- Longitude
    2,                        !- Time Zone
    8;                        !- Elevation

SizingPeriod:DesignDay,
    KalamataSummerDesignDay,    !- Name
    6,                        !- Month
    10,                       !- Day of Month
    SummerDesignDay,          !- Day Type
    33.2,                     !- Maximum DryBulb Temperature
    11,                       !- Daily DryBulb Temperature Range
    DefaultMultipliers,       !- DryBulb Temperature Range Modifier Type
    ,                         !- DryBulb Temperature Range Modifier Day Schedule Name
    Wetbulb,                  !- Humidity Condition Type
    23,                       !- Wetbulb or DewPoint at Maximum DryBulb
    ,                         !- Humidity Condition Day Schedule Name
    ,                         !- Humidity Ratio at Maximum DryBulb
    ,                         !- Enthalpy at Maximum DryBulb
    ,                         !- Daily WetBulb Temperature Range
    101325,                   !- Barometric Pressure
    3,                        !- Wind Speed
    0,                        !- Wind Direction
    No,                       !- Rain Indicator
    No,                       !- Snow Indicator
    No,                       !- Daylight Saving Time Indicator
    ASHRAEClearSky,           !- Solar Model Indicator
    ,                         !- Beam Solar Day Schedule Name
    ,                         !- Diffuse Solar Day Schedule Name
    ,                         !- ASHRAE Clear Sky Optical Depth for Beam Irradiance taub
    ,                         !- ASHRAE Clear Sky Optical Depth for Diffuse Irradiance taud
    1;                        !- Sky Clearness

SizingPeriod:DesignDay,
    KalamataWinterDesignDay,    !- Name
    1,                        !- Month
    21,                       !- Day of Month
    WinterDesignDay,          !- Day Type
    1.2,                      !- Maximum DryBulb Temperature
    0,                        !- Daily DryBulb Temperature Range
    DefaultMultipliers,       !- DryBulb Temperature Range Modifier Type
    ,                         !- DryBulb Temperature Range Modifier Day Schedule Name
    WetBulb,                  !- Humidity Condition Type
    -1.5,                     !- Wetbulb or DewPoint at Maximum DryBulb
    ,                         !- Humidity Condition Day Schedule Name
    ,                         !- Humidity Ratio at Maximum DryBulb
    ,                         !- Enthalpy at Maximum DryBulb
    ,                         !- Daily WetBulb Temperature Range
    101325,                   !- Barometric Pressure
    3,                        !- Wind Speed
    0,                        !- Wind Direction
    No,                       !- Rain Indicator
    No,                       !- Snow Indicator
    No,                       !- Daylight Saving Time Indicator
    ASHRAEClearSky,           !- Solar Model Indicator
    ,                         !- Beam Solar Day Schedule Name
    ,                         !- Diffuse Solar Day Schedule Name
    ,                         !- ASHRAE Clear Sky Optical Depth for Beam Irradiance taub
    ,                         !- ASHRAE Clear Sky Optical Depth for Diffuse Irradiance taud
    0.9;                      !- Sky Clearness

RunPeriod,
    RunPeriod1,               !- Name
    1,                        !- Begin Month
    1,                        !- Begin Day of Month
    ,                         !- Begin Year
    12,                       !- End Month
    31,                       !- End Day of Month
    ,                         !- End Year
    Tuesday,                  !- Day of Week for Start Day
    Yes,                      !- Use Weather File Holidays and Special Days
    Yes,                      !- Use Weather File Daylight Saving Period
    No,                       !- Apply Weekend Holiday Rule
    Yes,                      !- Use Weather File Rain Indicators
    Yes;                      !- Use Weather File Snow Indicators

RunPeriodControl:SpecialDays,
    Ochi_Day,                 !- Name
    10/28,                    !- Start Date
    1,                        !- Duration
    Holiday;                  !- Special Day Type

RunPeriodControl:SpecialDays,
    Polytechnic_Uprising_Day,    !- Name
    11/17,                    !- Start Date
    1,                        !- Duration
    Holiday;                  !- Special Day Type

RunPeriodControl:SpecialDays,
    Independence_Day,         !- Name
    03/25,                    !- Start Date
    1,                        !- Duration
    Holiday;                  !- Special Day Type

RunPeriodControl:SpecialDays,
    Labour_Day,               !- Name
    05/01,                    !- Start Date
    1,                        !- Duration
    Holiday;                  !- Special Day Type

RunPeriodControl:SpecialDays,
    Christmas_Break_Dec,      !- Name
    12/24,                    !- Start Date
    8,                        !- Duration
    Holiday;                  !- Special Day Type

RunPeriodControl:SpecialDays,
    Christmas_Break_Jan,      !- Name
    01/01,                    !- Start Date
    6,                        !- Duration
    Holiday;                  !- Special Day Type

RunPeriodControl:SpecialDays,
    Easter_Break,             !- Name
    04/10,                    !- Start Date
    14,                       !- Duration
    Holiday;                  !- Special Day Type

RunPeriodControl:SpecialDays,
    Summer_Break,             !- Name
    06/16,                    !- Start Date
    87,                       !- Duration
    Holiday;                  !- Special Day Type

ScheduleTypeLimits,
    Any Number;               !- Name

ScheduleTypeLimits,
    Fraction,                 !- Name
    0,                        !- Lower Limit Value
    1,                        !- Upper Limit Value
    CONTINUOUS;               !- Numeric Type

ScheduleTypeLimits,
    Control Type,             !- Name
    0,                        !- Lower Limit Value
    4,                        !- Upper Limit Value
    DISCRETE;                 !- Numeric Type

ScheduleTypeLimits,
    Temperature,              !- Name
    -60,                      !- Lower Limit Value
    200,                      !- Upper Limit Value
    CONTINUOUS,               !- Numeric Type
    Temperature;              !- Unit Type

ScheduleTypeLimits,
    On/Off,                   !- Name
    0,                        !- Lower Limit Value
    1,                        !- Upper Limit Value
    DISCRETE;                 !- Numeric Type

ScheduleTypeLimits,
    FlowRate,                 !- Name
    0,                        !- Lower Limit Value
    10,                       !- Upper Limit Value
    CONTINUOUS;               !- Numeric Type

Schedule:Compact,
    EQUIP-1,                  !- Name
    Fraction,                 !- Schedule Type Limits Name
    Through: 12/31,           !- Field 1
    For: WeekDays,            !- Field 2
    Until: 08:30,             !- Field 3
    0.0,                      !- Field 4
    Until: 16:00,             !- Field 5
    1.0,                      !- Field 6
    Until: 24:00,             !- Field 7
    0.0,                      !- Field 8
    For: Weekends Holiday SummerDesignDay WinterDesignDay CustomDay1 CustomDay2,    !- Field 9
    Until: 24:00,             !- Field 10
    0.0;                      !- Field 11

Schedule:Compact,
    OCCRPY-ROOM1,             !- Name
    Fraction,                 !- Schedule Type Limits Name
    Through: 12/31,           !- Field 1
    For: Weekdays,            !- Field 2
    Until: 08:10,             !- Field 3
    0.0,                      !- Field 4
    Until: 10:00,             !- Field 5
    1.0,                      !- Field 6
    Until: 10:10,             !- Field 7
    0.0,                      !- Field 8
    Until: 12:00,             !- Field 9
    1.0,                      !- Field 10
    Until: 12:10,             !- Field 11
    0.0,                      !- Field 12
    Until: 15:00,             !- Field 13
    1.0,                      !- Field 14
    Until: 24:00,             !- Field 15
    0.0,                      !- Field 16
    For: Weekends Holiday SummerDesignDay WinterDesignDay CRstomDay1 CRstomDay2,    !- Field 17
    Until: 24:00,             !- Field 18
    0.0;                      !- Field 19

Schedule:Compact,
    LIGHTS-1,                 !- Name
    On/Off,                   !- Schedule Type Limits Name
    Through: 12/31,           !- Field 1
    For: WeekDays,            !- Field 2
    Until: 08:10,             !- Field 3
    0.0,                      !- Field 4
    Until: 10:00,             !- Field 5
    1.0,                      !- Field 6
    Until: 10:10,             !- Field 7
    0.0,                      !- Field 8
    Until: 12:00,             !- Field 9
    1.0,                      !- Field 10
    Until: 12:10,             !- Field 11
    0.0,                      !- Field 12
    Until: 16:00,             !- Field 13
    1.0,                      !- Field 14
    Until: 24:00,             !- Field 15
    0.0,                      !- Field 16
    For: Weekends Holiday SummerDesignDay WinterDesignDay CRstomDay1 CRstomDay2,    !- Field 17
    Until: 24:00,             !- Field 18
    0;                        !- Field 19

Schedule:Compact,
    INFIL-SCH1,               !- Name
    Fraction,                 !- Schedule Type Limits Name
    Through: 12/31,           !- Field 1
    For: Weekdays,            !- Field 2
    Until: 08:00,             !- Field 3
    0.05,                     !- Field 4
    Until: 08:10,             !- Field 5
    1.0,                      !- Field 6
    Until: 10:00,             !- Field 7
    0.05,                     !- Field 8
    Until: 10:10,             !- Field 9
    1.0,                      !- Field 10
    Until: 12:00,             !- Field 11
    0.05,                     !- Field 12
    Until: 12:10,             !- Field 13
    1.0,                      !- Field 14
    Until: 15:00,             !- Field 15
    0.05,                     !- Field 16
    Until: 15:10,             !- Field 17
    1.0,                      !- Field 18
    Until: 24:00,             !- Field 19
    0.05,                     !- Field 20
    For: Weekends Holiday SummerDesignDay WinterDesignDay CRstomDay1 CRstomDay2,    !- Field 21
    Until: 24:00,             !- Field 22
    0.05;                     !- Field 23

Schedule:Compact,
    Vent-Sch1,                !- Name
    Fraction,                 !- Schedule Type Limits Name
    Through: 12/31,           !- Field 1
    For: Weekdays,            !- Field 2
    Until: 08:00,             !- Field 3
    0.0,                      !- Field 4
    Until: 08:10,             !- Field 5
    1.0,                      !- Field 6
    Until: 10:00,             !- Field 7
    0.0,                      !- Field 8
    Until: 10:10,             !- Field 9
    1.0,                      !- Field 10
    Until: 12:00,             !- Field 11
    0.0,                      !- Field 12
    Until: 12:10,             !- Field 13
    1.0,                      !- Field 14
    Until: 15:00,             !- Field 15
    0.0,                      !- Field 16
    Until: 15:10,             !- Field 17
    1.0,                      !- Field 18
    Until: 24:00,             !- Field 19
    0.0,                      !- Field 20
    For: Weekends Holiday SummerDesignDay WinterDesignDay CRstomDay1 CRstomDay2,    !- Field 21
    Until: 24:00,             !- Field 22
    0.0;                      !- Field 23

Schedule:Compact,
    ActSchd1,                 !- Name
    Any Number,               !- Schedule Type Limits Name
    Through: 12/31,           !- Field 1
    For: Weekdays,            !- Field 2
    Until: 08:10,             !- Field 3
    0.0,                      !- Field 4
    Until: 10:00,             !- Field 5
    53.1,                     !- Field 6
    Until: 10:10,             !- Field 7
    0.0,                      !- Field 8
    Until: 12:00,             !- Field 9
    97.3,                     !- Field 10
    Until: 12:10,             !- Field 11
    0.0,                      !- Field 12
    Until: 15:00,             !- Field 13
    53.1,                     !- Field 14
    Until: 24:00,             !- Field 15
    0,                        !- Field 16
    For: Weekends Holiday SummerDesignDay WinterDesignDay CRstomDay1 CRstomDay2,    !- Field 17
    Until: 24:00,             !- Field 18
    0;                        !- Field 19

Schedule:Compact,
    OCCRPY-ROOM2,             !- Name
    Fraction,                 !- Schedule Type Limits Name
    Through: 12/31,           !- Field 1
    For: Weekdays,            !- Field 2
    Until: 10:00,             !- Field 3
    0.0,                      !- Field 4
    Until: 10:10,             !- Field 5
    1.0,                      !- Field 6
    Until: 12:00,             !- Field 7
    0.0,                      !- Field 8
    Until: 12:10,             !- Field 9
    1.0,                      !- Field 10
    Until: 15:00,             !- Field 11
    0.0,                      !- Field 12
    Until: 15:10,             !- Field 13
    1.0,                      !- Field 14
    Until: 24:00,             !- Field 15
    0.0,                      !- Field 16
    For: Weekends Holiday SummerDesignDay WinterDesignDay CRstomDay1 CRstomDay2,    !- Field 17
    Until: 24:00,             !- Field 18
    0.0;                      !- Field 19

Schedule:Compact,
    LIGHTS-2,                 !- Name
    On/Off,                   !- Schedule Type Limits Name
    Through: 12/31,           !- Field 1
    For: WeekDays,            !- Field 2
    Until: 08:00,             !- Field 3
    0.0,                      !- Field 4
    Until: 08:10,             !- Field 5
    1.0,                      !- Field 6
    Until: 10:00,             !- Field 7
    0.0,                      !- Field 8
    Until: 10:10,             !- Field 9
    1.0,                      !- Field 10
    Until: 12:00,             !- Field 11
    0.0,                      !- Field 12
    Until: 12:10,             !- Field 13
    1.0,                      !- Field 14
    Until: 15:00,             !- Field 15
    0.0,                      !- Field 16
    Until: 15:10,             !- Field 17
    1.0,                      !- Field 18
    Until: 24:00,             !- Field 19
    0.0,                      !- Field 20
    For: Weekends Holiday SummerDesignDay WinterDesignDay CRstomDay1 CRstomDay2,    !- Field 21
    Until: 24:00,             !- Field 22
    0;                        !- Field 23

Schedule:Compact,
    INFIL-SCH2,               !- Name
    Fraction,                 !- Schedule Type Limits Name
    Through: 12/31,           !- Field 1
    For: Weekdays,            !- Field 2
    Until: 08:10,             !- Field 3
    0.05,                     !- Field 4
    Until: 08:20,             !- Field 5
    1.0,                      !- Field 6
    Until: 10:10,             !- Field 7
    0.05,                     !- Field 8
    Until: 10:20,             !- Field 9
    1.0,                      !- Field 10
    Until: 12:10,             !- Field 11
    0.05,                     !- Field 12
    Until: 12:20,             !- Field 13
    1.0,                      !- Field 14
    Until: 15:10,             !- Field 15
    0.05,                     !- Field 16
    Until: 15:20,             !- Field 17
    1.0,                      !- Field 18
    Until: 24:00,             !- Field 19
    0.05,                     !- Field 20
    For: Weekends Holiday SummerDesignDay WinterDesignDay CRstomDay1 CRstomDay2,    !- Field 21
    Until: 24:00,             !- Field 22
    0.05;                     !- Field 23

Schedule:Compact,
    Vent-Sch2,                !- Name
    Fraction,                 !- Schedule Type Limits Name
    Through: 12/31,           !- Field 1
    For: Weekdays,            !- Field 2
    Until: 08:10,             !- Field 3
    0.0,                      !- Field 4
    Until: 08:20,             !- Field 5
    1.0,                      !- Field 6
    Until: 10:10,             !- Field 7
    0.0,                      !- Field 8
    Until: 10:20,             !- Field 9
    1.0,                      !- Field 10
    Until: 12:10,             !- Field 11
    0.0,                      !- Field 12
    Until: 12:20,             !- Field 13
    1.0,                      !- Field 14
    Until: 15:10,             !- Field 15
    0.0,                      !- Field 16
    Until: 15:20,             !- Field 17
    1.0,                      !- Field 18
    Until: 24:00,             !- Field 19
    0.0,                      !- Field 20
    For: Weekends Holiday SummerDesignDay WinterDesignDay CRstomDay1 CRstomDay2,    !- Field 21
    Until: 24:00,             !- Field 22
    0.0;                      !- Field 23

Schedule:Compact,
    ActSchd2,                 !- Name
    Any Number,               !- Schedule Type Limits Name
    Through: 12/31,           !- Field 1
    For: Weekdays,            !- Field 2
    Until: 10:00,             !- Field 3
    0.00,                     !- Field 4
    Until: 10:10,             !- Field 5
    97.3,                     !- Field 6
    Until: 12:00,             !- Field 7
    0.00,                     !- Field 8
    Until: 12:10,             !- Field 9
    97.3,                     !- Field 10
    Until: 15:00,             !- Field 11
    0.00,                     !- Field 12
    Until: 15:10,             !- Field 13
    97.3,                     !- Field 14
    Until: 24:00,             !- Field 15
    0,                        !- Field 16
    For: Weekends Holiday SummerDesignDay WinterDesignDay CRstomDay1 CRstomDay2,    !- Field 17
    Until: 24:00,             !- Field 18
    0;                        !- Field 19

Schedule:Compact,
    Heat-Avail,               !- Name
    Fraction,                 !- Schedule Type Limits Name
    Through: 12/31,           !- Field 1
    For: Weekdays,            !- Field 2
    Until: 08:10,             !- Field 3
    0.0,                      !- Field 4
    Until: 10:00,             !- Field 5
    1.0,                      !- Field 6
    Until: 10:10,             !- Field 7
    0.0,                      !- Field 8
    Until: 12:00,             !- Field 9
    1.0,                      !- Field 10
    Until: 12:10,             !- Field 11
    0.0,                      !- Field 12
    Until: 15:00,             !- Field 13
    1.0,                      !- Field 14
    Until: 24:00,             !- Field 15
    0.0,                      !- Field 16
    For: Weekends Holiday SummerDesignDay WinterDesignDay CRstomDay1 CRstomDay2,    !- Field 17
    Until: 24:00,             !- Field 18
    0.0;                      !- Field 19

Schedule:Compact,
    HVAC-Avail,               !- Name
    Fraction,                 !- Schedule Type Limits Name
    Through: 12/31,           !- Field 1
    For: Weekdays,            !- Field 2
    Until: 08:00,             !- Field 3
    0.0,                      !- Field 4
    Until: 10:10,             !- Field 5
    1.0,                      !- Field 6
    Until: 10:20,             !- Field 7
    0.0
      Until: 12:10,    !- Field 8
    1.0,                      !- Field 9
    Until: 12:20,             !- Field 10
    0.0
      Until: 15:10,    !- Field 11
    1.0,                      !- Field 12
    Until: 24:00,             !- Field 13
    0.0,                      !- Field 14
    For: Weekends Holiday SummerDesignDay WinterDesignDay CRstomDay1 CRstomDay2,    !- Field 15
    Until: 24:00,             !- Field 16
    0.0;                      !- Field 17

Schedule:Compact,
    FanOpModeCycling,         !- Name
    Any Number,               !- Schedule Type Limits Name
    Through: 12/31,           !- Field 1
    For: AllDays,             !- Field 2
    Until: 24:00,             !- Field 3
    0;                        !- Field 4

Schedule:Compact,
    Zone Control Type Sched1,    !- Name
    Control Type,             !- Schedule Type Limits Name
    Through: 12/31,           !- Field 1
    For: Weekdays,            !- Field 2
    Until: 08:00,             !- Field 3
    0,                        !- Field 4
    Until: 14:00,             !- Field 5
    1,                        !- Field 6
    Until: 24:00,             !- Field 7
    0,                        !- Field 8
    For: WinterDesignDay SummerDesignDay,    !- Field 9
    Until: 24:00,             !- Field 10
    1,                        !- Field 11
    For: Weekends Holiday CRstomDay1 CRstomDay2,    !- Field 12
    Until: 24:00,             !- Field 13
    0.0;                      !- Field 14

Schedule:Compact,
    Zone Control Type Sched2,    !- Name
    Control Type,             !- Schedule Type Limits Name
    Through: 12/31,           !- Field 1
    For: Weekdays,            !- Field 2
    Until: 08:00,             !- Field 3
    0,                        !- Field 4
    Until: 14:00,             !- Field 5
    4,                        !- Field 6
    Until: 24:00,             !- Field 7
    0,                        !- Field 8
    For: WinterDesignDay SummerDesignDay,    !- Field 9
    Until: 24:00,             !- Field 10
    4,                        !- Field 11
    For: Weekends Holiday CRstomDay1 CRstomDay2,    !- Field 12
    Until: 24:00,             !- Field 13
    0.0;                      !- Field 14

Schedule:Compact,
    Htg-SetP-Sch,             !- Name
    Temperature,              !- Schedule Type Limits Name
    Through: 12/31,           !- Field 1
    For: WeekDays,            !- Field 2
    Until: 08:00,             !- Field 3
    16,                       !- Field 4
    Until: 14:00,             !- Field 5
    21,                       !- Field 6
    Until: 24:00,             !- Field 7
    16,                       !- Field 8
    For: WeekEnds Holiday SummerDesignDay WinterDesignDay CRstomDay1 CRstomDay2,    !- Field 9
    Until: 24:00,             !- Field 10
    16;                       !- Field 11

Schedule:Compact,
    Clg-SetP-Sch,             !- Name
    Temperature,              !- Schedule Type Limits Name
    Through: 12/31,           !- Field 1
    For: WeekDays,            !- Field 2
    Until: 08:00,             !- Field 3
    30,                       !- Field 4
    Until: 14:00,             !- Field 5
    25,                       !- Field 6
    Until: 24:00,             !- Field 7
    30,                       !- Field 8
    For: WeekEnds Holiday SummerDesignDay WinterDesignDay CRstomDay1 CRstomDay2,    !- Field 9
    Until: 24:00,             !- Field 10
    30;                       !- Field 11

Schedule:Compact,
    HW-Heating-Schedule,      !- Name
    Fraction,                 !- Schedule Type Limits Name
    Through: 12/31,           !- Field 1
    For: AllDays,             !- Field 2
    Until: 24:00,             !- Field 3
    1.0;                      !- Field 4

Schedule:Compact,
    HW-Setpoint-Schedule,     !- Name
    Temperature,              !- Schedule Type Limits Name
    Through: 12/31,           !- Field 1
    For: AllDays,             !- Field 2
    Until: 24:00,             !- Field 3
    60.0;                     !- Field 4

Schedule:Constant,
    Outdoor_CO2_Level,        !- Name
    Any Number,               !- Schedule Type Limits Name
    420;                      !- Hourly Value

Material,
    Plaster_15mm,             !- Name
    Smooth,                   !- Roughness
    0.015,                    !- Thickness
    0.35,                     !- Conductivity
    1200,                     !- Density
    840,                      !- Specific Heat
    0.9,                      !- Thermal Absorptance
    0.7,                      !- Solar Absorptance
    0.7;                      !- Visible Absorptance

Material,
    Brick_Masonry_200mm,      !- Name
    Rough,                    !- Roughness
    0.2,                      !- Thickness
    0.72,                     !- Conductivity
    1800,                     !- Density
    840,                      !- Specific Heat
    0.9,                      !- Thermal Absorptance
    0.65,                     !- Solar Absorptance
    0.65;                     !- Visible Absorptance

Material,
    Concrete_RC_200mm,        !- Name
    MediumRough,              !- Roughness
    0.2,                      !- Thickness
    1.7,                      !- Conductivity
    2400,                     !- Density
    900,                      !- Specific Heat
    0.9,                      !- Thermal Absorptance
    0.65,                     !- Solar Absorptance
    0.65;                     !- Visible Absorptance

Material,
    Linoleum_3mm,             !- Name
    Smooth,                   !- Roughness
    0.003,                    !- Thickness
    0.17,                     !- Conductivity
    1200,                     !- Density
    1400,                     !- Specific Heat
    0.9,                      !- Thermal Absorptance
    0.5,                      !- Solar Absorptance
    0.5;                      !- Visible Absorptance

Material,
    Wood_Floor_20mm,          !- Name
    MediumSmooth,             !- Roughness
    0.02,                     !- Thickness
    0.14,                     !- Conductivity
    650,                      !- Density
    1600,                     !- Specific Heat
    0.9,                      !- Thermal Absorptance
    0.55,                     !- Solar Absorptance
    0.55;                     !- Visible Absorptance

Material,
    Door_Wood_40mm,           !- Name
    MediumSmooth,             !- Roughness
    0.04,                     !- Thickness
    0.14,                     !- Conductivity
    600,                      !- Density
    1600,                     !- Specific Heat
    0.9,                      !- Thermal Absorptance
    0.6,                      !- Solar Absorptance
    0.6;                      !- Visible Absorptance

Material,
    Door_Metal_Steel_2mm,     !- Name
    Smooth,                   !- Roughness
    0.002,                    !- Thickness
    45,                       !- Conductivity
    7850,                     !- Density
    500,                      !- Specific Heat
    0.9,                      !- Thermal Absorptance
    0.7,                      !- Solar Absorptance
    0.7;                      !- Visible Absorptance

WindowMaterial:SimpleGlazingSystem,
    Simple_DoubleClear,       !- Name
    2.8,                      !- UFactor
    0.62,                     !- Solar Heat Gain Coefficient
    0.78;                     !- Visible Transmittance

Construction,
    Window_DoubleClear_Alu,    !- Name
    Simple_DoubleClear;       !- Outside Layer

Construction,
    Wall_BrickPlaster,        !- Name
    Plaster_15mm,             !- Outside Layer
    Brick_Masonry_200mm,      !- Layer 2
    Plaster_15mm;             !- Layer 3

Construction,
    Ceiling_RCSlab_Plaster,    !- Name
    Plaster_15mm,             !- Outside Layer
    Concrete_RC_200mm,        !- Layer 2
    Plaster_15mm;             !- Layer 3

Construction,
    Floor_Linoleum_on_RC,     !- Name
    Linoleum_3mm,             !- Outside Layer
    Concrete_RC_200mm;        !- Layer 2

Construction,
    Floor_Wood_on_RC,         !- Name
    Wood_Floor_20mm,          !- Outside Layer
    Concrete_RC_200mm;        !- Layer 2

Construction,
    Door_Wood,                !- Name
    Door_Wood_40mm;           !- Outside Layer

Construction,
    Door_Metal,               !- Name
    Door_Metal_Steel_2mm;     !- Outside Layer

GlobalGeometryRules,
    UpperLeftCorner,          !- Starting Vertex Position
    CounterClockWise,         !- Vertex Entry Direction
    World;                    !- Coordinate System

Zone,
    Classroom_Left,           !- Name
    0,                        !- Direction of Relative North
    0,                        !- X Origin
    0,                        !- Y Origin
    0,                        !- Z Origin
    1,                        !- Type
    1,                        !- Multiplier
    3;                        !- Ceiling Height

Zone,
    Classroom_Right,          !- Name
    0,                        !- Direction of Relative North
    0,                        !- X Origin
    0,                        !- Y Origin
    0,                        !- Z Origin
    1,                        !- Type